test1.m
% data for test case
% (bus#)( volt )( ang )(  p )(  q )(bus type)

bus=[
   1   1.00  0.0   -1.60  -0.80   1;
   2   1.00  0.0   -2.00  -1.00   1;
   3   1.00  0.0   -3.70  -1.30   1;
   4   1.05  0.0    5.00   0.00   2;
   5   1.05  0.0    0.00   0.00   3];

% b#1 b#2  ( R )( X )( G )( B/2 ) ( tap )

line = [
   1   2 0.04 0.25  0.0 0.25    0;
   1   3 0.10 0.35  0.0 0.0     0;
   2   3 0.08 0.30  0.0 0.25    0;
   5   3 0.00 0.03  0.0 0.0  1.05;
   4   2 0.00 0.015 0.0 0.0  1.05];